Info: SIMULATION PARAMETERS:
Info: TIMESTEP               1
Info: NUMBER OF STEPS        0
Info: STEPS PER CYCLE        20
Info: FIRST LDB TIMESTEP     100
Info: LAST LDB TIMESTEP     -1
Info: HOM BACKGROUND SCALING 1
Info: MIN ATOMS PER PATCH    40
Info: INITIAL TEMPERATURE    310
Info: CENTER OF MASS MOVING INITIALLY? NO
Info: DIELECTRIC             1
Info: EXCLUDE                SCALED ONE-FOUR
Info: 1-4 ELECTROSTATICS SCALED BY 1
Info: MODIFIED 1-4 VDW PARAMETERS WILL BE USED
Info: DCD FILENAME           C:/1ubq/solvate.dcd
Info: DCD FREQUENCY          50
Info: DCD FIRST STEP         50
Info: XST FILENAME           C:/1ubq/solvate.xst
Info: XST FREQUENCY          50
Info: NO VELOCITY DCD OUTPUT
Info: NO FORCE DCD OUTPUT
Info: OUTPUT FILENAME        C:/1ubq/solvate
Info: RESTART FILENAME       C:/1ubq/solvate.restart
Info: RESTART FREQUENCY      1000
Info: SWITCHING ACTIVE
Info: SWITCHING ON           9
Info: SWITCHING OFF          10
Info: PAIRLIST DISTANCE      12
Info: PAIRLIST SHRINK RATE   0.01
Info: PAIRLIST GROW RATE     0.01
Info: PAIRLIST TRIGGER       0.3
Info: PAIRLISTS PER CYCLE    2
Info: PAIRLISTS ENABLED
Info: MARGIN                 0
Info: HYDROGEN GROUP CUTOFF  2.5
Info: PATCH DIMENSION        14.5
Info: ENERGY OUTPUT STEPS    100
Info: CROSSTERM ENERGY INCLUDED IN DIHEDRAL
Info: TIMING OUTPUT STEPS    1000
Info: LANGEVIN DYNAMICS ACTIVE
Info: LANGEVIN TEMPERATURE   310
Info: LANGEVIN USING BBK INTEGRATOR
Info: LANGEVIN DAMPING COEFFICIENT IS 1 INVERSE PS
Info: LANGEVIN DYNAMICS NOT APPLIED TO HYDROGENS
Info: USING VERLET I (r-RESPA) MTS SCHEME.
Info: C1 SPLITTING OF LONG RANGE ELECTROSTATICS
Info: PLACING ATOMS IN PATCHES BY HYDROGEN GROUPS
Info: NONBONDED FORCES EVALUATED EVERY 2 STEPS
Info: RANDOM NUMBER SEED     12345
Info: USE HYDROGEN BONDS?    NO
Info: COORDINATE PDB         C:/1ubq/solvate.pdb
Info: STRUCTURE FILE         C:/1ubq/solvate.psf
Info: PARAMETER file: CHARMM format!
Info: PARAMETERS             C:/Program Files/VMD/plugins/noarch/tcl/readcharmmpar1.5/par_all36_prot.prm
Info: PARAMETERS             C:/Program Files/VMD/plugins/noarch/tcl/readcharmmpar1.5/par_all36_na.prm
Info: PARAMETERS             C:/Program Files/VMD/plugins/noarch/tcl/readcharmmpar1.5/par_all36_lipid.prm
Info: PARAMETERS             C:/Program Files/VMD/plugins/noarch/tcl/readcharmmpar1.5/par_all36_carb.prm
Info: PARAMETERS             C:/Program Files/VMD/plugins/noarch/tcl/readcharmmpar1.5/par_all36_cgenff.prm
Info: PARAMETERS             C:/Program Files/VMD/plugins/noarch/tcl/readcharmmpar1.5/toppar_water_ions_namd.str
Info: USING ARITHMETIC MEAN TO COMBINE L-J SIGMA PARAMETERS
Info: SKIPPING rtf SECTION IN STREAM FILE
Info: SUMMARY OF PARAMETERS:
Info: 911 BONDS
Info: 2652 ANGLES
Info: 6440 DIHEDRAL
Info: 189 IMPROPER
Info: 6 CROSSTERM
Info: 350 VDW
Info: 6 VDW_PAIRS
Info: 0 NBTHOLE_PAIRS
Info:
Info: STRUCTURE SUMMARY:
Info: 3409 ATOMS
Info: 2689 BONDS
Info: 2983 ANGLES
Info: 3293 DIHEDRALS
Info: 212 IMPROPERS
Info: 74 CROSSTERMS
Info: 0 EXCLUSIONS
Info: 10227 DEGREES OF FREEDOM
Info: 1328 HYDROGEN GROUPS
Info: 4 ATOMS IN LARGEST HYDROGEN GROUP
Info: 1328 MIGRATION GROUPS
Info: 4 ATOMS IN LARGEST MIGRATION GROUP
Info: TOTAL MASS = 21644 amu
Info: TOTAL CHARGE = 1.0021e-06 e
Info:
Info: ADDED 8936 IMPLICIT EXCLUSIONS
Info: NONBONDED TABLE R-SQUARED SPACING: 0.0625
Info: NONBONDED TABLE SIZE: 705 POINTS
Info: ORIGINAL ATOMS MINMAX IS 14.556 12.888 -1.744  46.747 47.76 35.925
Info: ADJUSTED ATOMS MINMAX IS 15.0433 13.4526 -0.99825  46.1107 47.5764 35.5042
Info: REMOVING COM VELOCITY -0.0242854 0.0545441 -0.162813
TCL: Minimizing for 1000 steps
ETITLE: TS BOND ANGLE DIHED IMPRP ELECT VDW BOUNDARY MISC KINETIC TOTAL TEMP POTENTIAL TOTAL3 TEMPAVG
ENERGY: 0 1002.3440 501.5903 706.5627 10.7700 -6608.8880 1088.4383 0.0000 0.0000 0.0000 -3299.1827 0.0000 -3299.1827 -3299.1827 0.0000
ENERGY: 200 342.9078 435.1421 683.7355 9.2057 -11219.5410 608.8345 0.0000 0.0000 0.0000 -9139.7154 0.0000 -9139.7154 -9139.7154 0.0000
ENERGY: 400 350.4442 443.3677 667.4697 8.4761 -12159.1731 670.5082 0.0000 0.0000 0.0000 -10018.9071 0.0000 -10018.9071 -10018.9071 0.0000
ENERGY: 600 385.6094 457.7983 663.2536 8.4339 -12900.2292 868.2817 0.0000 0.0000 0.0000 -10516.8524 0.0000 -10516.8524 -10516.8524 0.0000
ENERGY: 800 395.5435 473.2802 664.5290 9.0787 -13411.7663 1067.6145 0.0000 0.0000 0.0000 -10801.7205 0.0000 -10801.7205 -10801.7205 0.0000
ENERGY: 1000 408.5249 469.4703 664.2473 9.9507 -13643.1041 1072.6634 0.0000 0.0000 0.0000 -11018.2474 0.0000 -11018.2474 -11018.2474 0.0000
TCL: Running for 10000 steps
ETITLE: TS BOND ANGLE DIHED IMPRP ELECT VDW BOUNDARY MISC KINETIC TOTAL TEMP POTENTIAL TOTAL3 TEMPAVG
ENERGY: 1000 408.5249 469.4703 664.2473 9.9507 -13643.1041 1072.6634 0.0000 0.0000 3190.9899 -7827.2575 314.0274 -11018.2474 -7869.2665 314.0274
ENERGY: 2800 866.0537 950.6126 747.1635 45.1514 -12624.5146 847.5125 0.0000 0.0000 2430.5644 -6737.4566 239.1934 -9168.0210 -6704.8578 236.8676
ENERGY: 4700 958.6026 1071.8883 736.8633 40.3019 -12583.9965 865.6699 0.0000 0.0000 2625.6054 -6285.0650 258.3875 -8910.6704 -6253.8522 262.2643
ENERGY: 6500 960.3621 1075.6943 743.7480 39.8786 -12552.5930 834.7297 0.0000 0.0000 2863.1332 -6035.0471 281.7628 -8898.1803 -5999.7897 278.2524
ENERGY: 8400 1005.5558 1128.4963 730.7142 42.8897 -12430.5177 737.0090 0.0000 0.0000 2970.5114 -5815.3413 292.3300 -8785.8527 -5780.6055 287.8181
ENERGY: 10200 1038.0591 1078.8314 745.2664 43.6559 -12282.0731 723.1892 0.0000 0.0000 3012.2269 -5640.8443 296.43
