Info: SIMULATION PARAMETERS:
Info: TIMESTEP               1
Info: NUMBER OF STEPS        0
Info: STEPS PER CYCLE        20
Info: FIRST LDB TIMESTEP     100
Info: LAST LDB TIMESTEP     -1
Info: HOM BACKGROUND SCALING 1
Info: MIN ATOMS PER PATCH    40
Info: INITIAL TEMPERATURE    310
Info: CENTER OF MASS MOVING INITIALLY? NO
Info: DIELECTRIC             1
Info: EXCLUDE                SCALED ONE-FOUR
Info: 1-4 ELECTROSTATICS SCALED BY 1
Info: MODIFIED 1-4 VDW PARAMETERS WILL BE USED
Info: DCD FILENAME           C:/1j4n/solvate.dcd
Info: DCD FREQUENCY          50
Info: DCD FIRST STEP         50
Info: XST FILENAME           C:/1j4n/solvate.xst
Info: XST FREQUENCY          50
Info: NO VELOCITY DCD OUTPUT
Info: NO FORCE DCD OUTPUT
Info: OUTPUT FILENAME        C:/1j4n/solvate
Info: RESTART FILENAME       C:/1j4n/solvate.restart
Info: RESTART FREQUENCY      1000
Info: SWITCHING ACTIVE
Info: SWITCHING ON           9
Info: SWITCHING OFF          10
Info: PAIRLIST DISTANCE      12
Info: PAIRLIST SHRINK RATE   0.01
Info: PAIRLIST GROW RATE     0.01
Info: PAIRLIST TRIGGER       0.3
Info: PAIRLISTS PER CYCLE    2
Info: PAIRLISTS ENABLED
Info: MARGIN                 0
Info: HYDROGEN GROUP CUTOFF  2.5
Info: PATCH DIMENSION        14.5
Info: ENERGY OUTPUT STEPS    100
Info: CROSSTERM ENERGY INCLUDED IN DIHEDRAL
Info: TIMING OUTPUT STEPS    1000
Info: LANGEVIN DYNAMICS ACTIVE
Info: LANGEVIN TEMPERATURE   310
Info: LANGEVIN USING BBK INTEGRATOR
Info: LANGEVIN DAMPING COEFFICIENT IS 1 INVERSE PS
Info: LANGEVIN DYNAMICS NOT APPLIED TO HYDROGENS
Info: USING VERLET I (r-RESPA) MTS SCHEME.
Info: C1 SPLITTING OF LONG RANGE ELECTROSTATICS
Info: PLACING ATOMS IN PATCHES BY HYDROGEN GROUPS
Info: NONBONDED FORCES EVALUATED EVERY 2 STEPS
Info: RANDOM NUMBER SEED     12345
Info: USE HYDROGEN BONDS?    NO
Info: COORDINATE PDB         C:/1j4n/solvate.pdb
Info: STRUCTURE FILE         C:/1j4n/solvate.psf
Info: PARAMETER file: CHARMM format!
Info: PARAMETERS             C:/Program Files/VMD/plugins/noarch/tcl/readcharmmpar1.5/par_all36_prot.prm
Info: PARAMETERS             C:/Program Files/VMD/plugins/noarch/tcl/readcharmmpar1.5/par_all36_na.prm
Info: PARAMETERS             C:/Program Files/VMD/plugins/noarch/tcl/readcharmmpar1.5/par_all36_lipid.prm
Info: PARAMETERS             C:/Program Files/VMD/plugins/noarch/tcl/readcharmmpar1.5/par_all36_carb.prm
Info: PARAMETERS             C:/Program Files/VMD/plugins/noarch/tcl/readcharmmpar1.5/par_all36_cgenff.prm
Info: PARAMETERS             C:/Program Files/VMD/plugins/noarch/tcl/readcharmmpar1.5/toppar_water_ions_namd.str
Info: USING ARITHMETIC MEAN TO COMBINE L-J SIGMA PARAMETERS
Info: SKIPPING rtf SECTION IN STREAM FILE
Info: SUMMARY OF PARAMETERS:
Info: 911 BONDS
Info: 2652 ANGLES
Info: 6440 DIHEDRAL
Info: 189 IMPROPER
Info: 6 CROSSTERM
Info: 350 VDW
Info: 6 VDW_PAIRS
Info: 0 NBTHOLE_PAIRS
Info:
Info: STRUCTURE SUMMARY:
Info: 10827 ATOMS
Info: 8512 BONDS
Info: 9249 ANGLES
Info: 10059 DIHEDRALS
Info: 636 IMPROPERS
Info: 247 CROSSTERMS
Info: 0 EXCLUSIONS
Info: 32481 DEGREES OF FREEDOM
Info: 4206 HYDROGEN GROUPS
Info: 4 ATOMS IN LARGEST HYDROGEN GROUP
Info: 4206 MIGRATION GROUPS
Info: 4 ATOMS IN LARGEST MIGRATION GROUP
Info: TOTAL MASS = 68660.1 amu
Info: TOTAL CHARGE = 3 e
Info:
Info: ADDED 27667 IMPLICIT EXCLUSIONS
Info: NONBONDED TABLE R-SQUARED SPACING: 0.0625
Info: NONBONDED TABLE SIZE: 705 POINTS
Info: ORIGINAL ATOMS MINMAX IS 11.384 11.041 -3.259  59.984 50.664 63.197
Info: ADJUSTED ATOMS MINMAX IS 11.9319 11.693 -2.7935  60.0031 50.393 62.7715
Info: REMOVING COM VELOCITY 0.0679722 -0.042024 -0.0463728
TCL: Minimizing for 1000 steps
ETITLE: TS BOND ANGLE DIHED IMPRP ELECT VDW BOUNDARY MISC KINETIC TOTAL TEMP POTENTIAL TOTAL3 TEMPAVG
ENERGY: 0 2686.4008 1130.4376 1946.8744 1.5506 -21707.4123 3878.5193 0.0000 0.0000 0.0000 -12063.6297 0.0000 -12063.6297 -12063.6297 0.0000
ENERGY: 200 1243.9005 1469.2720 1895.8373 35.0050 -34096.8522 2160.1700 0.0000 0.0000 0.0000 -27292.6674 0.0000 -27292.6674 -27292.6674 0.0000
ENERGY: 400 1159.5216 1509.6694 1889.2616 37.0919 -36706.2777 2652.4618 0.0000 0.0000 0.0000 -29458.2714 0.0000 -29458.2714 -29458.2714 0.0000
ENERGY: 600 1275.4839 1522.7256 1881.0395 31.1988 -38501.0436 3165.7910 0.0000 0.0000 0.0000 -30624.8049 0.0000 -30624.8049 -30624.8049 0.0000
ENERGY: 800 1323.9649 1526.5457 1869.7592 32.1407 -39337.3444 3225.7958 0.0000 0.0000 0.0000 -31359.1381 0.0000 -31359.1381 -31359.1381 0.0000
ENERGY: 1000 1352.5579 1536.8096 1860.0494 31.4392 -40045.1211 3442.3303 0.0000 0.0000 0.0000 -31821.9346 0.0000 -31821.9346 -31821.9346 0.0000
TCL: Running for 10000 steps
ETITLE: TS BOND ANGLE DIHED IMPRP ELECT VDW BOUNDARY MISC KINETIC TOTAL TEMP POTENTIAL TOTAL3 TEMPAVG
ENERGY: 1000 1352.5579 1536.8096 1860.0494 31.4392 -40045.1211 3442.3303 0.0000 0.0000 9950.5198 -21871.4148 308.3236 -31821.9346 -22005.4866 308.3236
ENERGY: 2900 2715.9028 3078.2132 2089.2147 105.7718 -36308.1409 2717.5811 0.0000 0.0000 7519.9353 -18081.5220 233.0103 -25601.4574 -17980.5947 230.7515
ENERGY: 4900 2892.7788 3353.0357 2101.8031 131.8959 -35671.7183 2496.7835 0.0000 0.0000 8532.2977 -16163.1237 264.3790 -24695.4214 -16058.8257 262.9217
ENERGY: 6800 3107.4113 3524.5410 2117.4416 130.7587 -35459.1542 2330.4537 0.0000 0.0000 8965.5159 -15283.0320 277.8026 -24248.5479 -15175.6707 277.1736
ENERGY: 8800 3282.3590 3528.3877 2100.8712 134.3651 -35236.2592 2419.2638 0.0000 0.0000 9091.5223 -14679.4901 281.7070 -23771.0125 -14563.8536 283.1729
ENERGY: 10700 3307.7292 3544.3820 2128.3848 123.7513 -35036.4169 2287.5751 0.0000 0.0000 9341.8625 -14302.7319 289.4639 -23644.5945 -14184.6864 289.1186
